18
Properties=species:S:1:pos:R:3:initial_charges:R:1 pbc="F F F"
C        2.02370000       0.00010000       0.55930000       0.14000000
C        0.55790000       0.00010000       0.28410000      -0.14000000
C       -0.12770000       1.20810000       0.15550000      -0.15000000
C       -0.12750000      -1.20790000       0.15560000      -0.15000000
C        2.85490000      -0.00010000      -0.72100000       0.00000000
C       -1.49870000       1.20790000      -0.10170000      -0.15000000
C       -1.49850000      -1.20800000      -0.10160000      -0.15000000
C       -2.18410000      -0.00010000      -0.23030000      -0.15000000
H        2.29070000       0.87440000       1.16620000       0.00000000
H        2.29070000      -0.87380000       1.16660000       0.00000000
H        0.39510000       2.15600000       0.25180000       0.15000000
H        0.39530000      -2.15580000       0.25190000       0.15000000
H        2.64420000      -0.88580000      -1.32980000       0.00000000
H        3.92220000      -0.00010000      -0.47840000       0.00000000
H        2.64410000       0.88540000      -1.33010000       0.00000000
H       -2.03240000       2.14840000      -0.20240000       0.15000000
H       -2.03220000      -2.14860000      -0.20230000       0.15000000
H       -3.25150000      -0.00030000      -0.43080000       0.15000000
